34
ZINC000000000066
O 5.907139244636322 -0.7981289686504502 -1.226986746122104
C 5.376173168403825 -0.34359431411321845 -0.2305560685629726
O 6.104972412606627 0.21487566247496284 0.7526880608237023
C 3.9214250212208563 -0.3323264789677719 0.05357115859508842
C 3.051912094200585 -0.8725503688972622 -0.8960641915853562
C 1.66871569971559 -0.8805363472661689 -0.6681690928172225
C 1.1240665790893811 -0.3753929818310435 0.5153396212896288
N -0.24319730743921394 -0.2916986720473891 0.7942144294187339
C -1.2407789788957508 -1.0449187681477412 0.040453589785682496
O -2.30689718240635 -1.3637495038551244 0.9545229809019365
C -3.0572920545533573 -0.23118289047494317 1.4004069279955453
C -3.6707563975256017 0.557682146663912 0.2469518421086036
O -4.324236631716029 1.744104089330935 0.705875285948146
C -2.5815591689815656 0.9464705851164009 -0.7517360040806503
O -3.1809778386616885 1.5647406187983084 -1.906347033248476
C -1.817848971464095 -0.3010023643903713 -1.1933070295296502
O -0.8580677912113307 0.043133351102319334 -2.198071662517136
C 2.0125587868526207 0.1935666136281713 1.443785464355207
C 3.3956860901524433 0.2081791771238659 1.2275967399577916
H 7.026683832460463 0.1387781988883245 0.4284443801366566
H 3.4395855282458827 -1.2819063086618576 -1.826933208913319
H 1.0381510550465693 -1.2938065818001032 -1.4494091494629773
H -0.38676226020868826 -0.4562629326996545 1.7875784163656212
H -0.8234647586702506 -2.0071567487234416 -0.2766730334447458
H -2.437541332980104 0.41420277861985755 2.034478912020602
H -3.856274131357407 -0.6004572810792208 2.0532687209174134
H -4.426220403141175 -0.04963719821049067 -0.2668541717248029
H -5.054048483811053 1.4700347930387498 1.2900024327974688
H -1.902184416545416 1.697790718819606 -0.3317524232776038
H -3.7494303812193728 2.273280869349977 -1.542555479413189
H -2.5295887999150954 -0.9739341538631082 -1.689970773657585
H -1.292088527839071 0.7354055225827352 -2.7364612553539724
H 1.626774232605805 0.6439118963261627 2.356020870862485
H 4.045372073301152 0.6520858418166274 1.97719167331127
