40
ZINC000000000106
C 5.596369815064216 1.4633909874270192 0.953374523070835
C 4.939050820209169 0.2902249127503627 0.2889069082959016
C 5.623001555277851 -0.4577567422935799 -0.6777791465878691
C 5.025058235634897 -1.5782265159503346 -1.2627913733954492
C 3.7377979608390195 -1.961804685298993 -0.8847011308479814
Cl 3.0417535987075817 -3.360546645600152 -1.6165917520687698
C 3.0491378054062954 -1.2163773189468956 0.07385655429849594
O 1.8009566816839695 -1.5732448953581508 0.5099120941178361
C 0.7821799790365157 -0.9507977995119943 -0.29265832466886127
C -0.40479474602607485 -0.6012900511066022 0.6114272425137316
O -0.08166404158835822 0.5507800122257701 1.410111839167294
C -1.6627659907465637 -0.2777079579629102 -0.21960947024269528
N -2.7354178708216623 0.1673355054816664 0.6878431034905654
C -3.99883960731974 0.5702871797961467 0.03840590193226197
C -4.937300691472625 1.020308921357791 1.1748711010733968
C -3.8002799777392773 1.7545836726693553 -0.9209654413888702
C -4.6606072089519035 -0.6021779566466828 -0.704041263502835
C 3.652666015411158 -0.10790090450600126 0.6735877152017956
H 4.858793321637582 2.2334696611264953 1.201200238669712
H 6.094194112138496 1.1413920534601958 1.872636029593558
H 6.33905901244827 1.923946436787699 0.29305519106818445
H 6.631577618557844 -0.1781049179628847 -0.9752936806980216
H 5.574648103908142 -2.1532154085246766 -2.003602690200252
H 1.1497563116319067 -0.042217799859943686 -0.7893463015874437
H 0.4754249942648379 -1.674760142937408 -1.0558565850074495
H -0.6054086229934237 -1.4250833034142563 1.3071167772328038
H -0.950807710042727 0.9314174659246298 1.6537190697968127
H -1.414389898896188 0.5266726270391193 -0.9198372362645686
H -1.9609411812201367 -1.1651120894292595 -0.7865542190128255
H -2.9331443601787313 -0.5824873978132448 1.3544995354483877
H -4.513162578384599 1.8627948355493036 1.7334412750239436
H -5.90884817556506 1.3420383762304176 0.7820197701761673
H -5.125864584665788 0.20814581707262136 1.886831630004745
H -4.7652902796032865 2.14050517813099 -1.271112547559054
H -3.2753502373830368 2.5816078135711384 -0.42914609288099215
H -3.2281565534520014 1.4709088828869725 -1.810410596658279
H -4.7829341558493885 -1.4714886247366006 -0.0479556429809236
H -5.657045374338621 -0.32259637632701577 -1.0662936542066395
H -4.07748302328386 -0.9168009168137498 -1.575916889163938
H 3.1090709286658247 0.43988811151386054 1.4410832289094433
