31
ZINC000000000209
C -3.355472632077267 -0.22869728687049265 0.9982787445994287
C -2.9134175408414356 0.2503895448210215 -0.38460504281616165
C -4.119887723803078 0.8408339977539243 -1.1238052686358289
N -1.87470488954231 1.2830620810797224 -0.24367243177151943
C -0.5148411691024622 0.7934035276781515 -0.5625466696024736
C 0.08306005714212594 -0.2600709423174333 0.4050675332681577
O -0.44758190862066777 -1.5615231504998586 0.13133816615554567
C 1.5957942392069988 -0.32625022888970445 0.294168357998738
C 2.4031013416389673 0.1723228014892078 1.3287587157946605
C 3.7961801215073745 0.12242961763166806 1.2317281696373
C 4.384393073907464 -0.42582080721877413 0.09697141243280805
O 5.7392109790301555 -0.4943304426324686 -0.038653775856187206
C 3.604520008044654 -0.9226417166485495 -0.9394629022758647
C 2.213405236056187 -0.8722882687404078 -0.8432047548978753
H -4.139639392799469 -0.9885564602442153 0.9085384347465192
H -2.5307975174118904 -0.6756432000177944 1.5602665518029588
H -3.758777919635596 0.5958004552532944 1.5975587416056338
H -2.5609494651544256 -0.6008133953050816 -0.9783359871404935
H -4.911556487336869 0.09125343208600926 -1.2311735359982363
H -4.5410308955890875 1.6998406171382685 -0.5890494012674202
H -3.838990695565537 1.1714004651881438 -2.130072265964129
H -2.0749544588987328 2.0498859982066966 -0.8860163410741791
H 0.12990072587321605 1.6813576771768444 -0.5481558739958391
H -0.5044721633972667 0.4144939369662434 -1.5926865249509319
H -0.19153496475750423 -0.010270923569579895 1.436768030501189
H 0.14230356261592317 -2.200426904123396 0.5670123567551074
H 1.950685141469768 0.6069031095231102 2.2182027913884115
H 4.399123766125161 0.5145374873249617 2.0446574204142003
H 6.1498823139614105 -0.1081759345484289 0.7520522584649785
H 4.077376521436082 -1.3475525172327425 -1.8203539033771188
H 1.6096727365180432 -1.2648525704584135 -1.6595730059412448
