45
ZINC000000000100
C 4.188948022161857 0.999840248002017 -3.246094224520146
C 3.3087950791967207 0.5876218838929824 -2.0968720558161356
C 1.96548307528737 0.2566327480511029 -2.3602946983470057
C 1.1057893574313196 -0.1340133441194072 -1.3324101832519757
C 1.576052813601582 -0.1833812477188446 -0.02605232379709861
O 0.7257322904875207 -0.6010134140235879 0.960627438298041
C 0.10055375590329522 0.5337667586529972 1.5890741045804946
C -1.0568255654608207 0.029257009151604133 2.4630069925974762
O -0.5445842976621501 -0.8677926443964165 3.4592062526478498
C -2.1557943219407347 -0.699180936218644 1.6582639767047358
N -2.8388503147250215 0.19997228742657236 0.7202290973979342
C -3.8572780291281026 -0.4272831340229761 -0.14551135578405616
C -4.4164791575545745 0.7031438789768614 -1.0319335688465974
C -5.016458775858019 -1.0271297707073344 0.6674716030820922
C -3.2489562943457666 -1.5003597133621966 -1.0633648990809772
C 2.909732627893995 0.12309531617848994 0.24413236743621605
O 3.3440016674590614 0.022951518505649086 1.584122061894719
C 4.647434102262488 0.31037742157372716 1.9497598825240636
O 5.041144214003447 0.2351272974181227 3.107648041221128
C 5.558866585429001 0.7232901726767892 0.8726440665835238
C 5.166151222332545 0.8222932244688541 -0.400510315576324
C 3.7880302849476726 0.5143676449645527 -0.7728935271287344
H 3.6383505092367083 1.0072950931730589 -4.192966109009552
H 4.575744051635344 2.0113711721097833 -3.0854691956598876
H 5.022919721748773 0.29937309916379384 -3.356984367397644
H 1.5778111631911007 0.2971380693537239 -3.376841036765258
H 0.073556907250851 -0.39441840705752534 -1.5502664473718188
H -0.26744699335955435 1.2510982528140164 0.8448502965319119
H 0.8418447358446083 1.0278793482372186 2.2291723279134654
H -1.4982961286140684 0.8767817390001399 2.999339051299043
H 0.09628053912419501 -1.445323679437408 2.9999449820547484
H -2.8714118482386373 -1.1216885113816546 2.373454351664054
H -1.7014002303448856 -1.5499094742017563 1.1395273657991225
H -3.2815356237789834 0.9484978733922257 1.2562102599140466
H -4.883683866121383 1.4924838070257955 -0.4306994300314268
H -3.62629105729549 1.1665571747092265 -1.6348890943428565
H -5.177772134914609 0.3237984192190134 -1.7234968839892841
H -4.697697023374367 -1.892360218093751 1.258778135555859
H -5.446385938188787 -0.2884365857682795 1.3538990776312685
H -5.821815364738922 -1.3685488009673614 0.006567003894707288
H -3.982996299481845 -1.8446065875945596 -1.8014824083158483
H -2.920855190484501 -2.3834374312491167 -0.505159761351304
H -2.387586787599814 -1.1093037037043707 -1.6165644300976745
H 6.575046566721635 0.9442634915103946 1.1758007355981812
H 5.872131950057445 1.1299126543766067 -1.1629731563426673
