36
ZINC000000000043
C 5.687493848546411 1.6930419797735698 -0.2987757953922267
O 4.590493919350063 1.3868175818875157 -1.1509553888435085
C 3.6374854083946557 0.5418430080121516 -0.6538515939939109
C 2.617190453638754 0.22130622775226774 -1.5551573565392298
C 1.5747859338729964 -0.6299457781893109 -1.1808571511934456
C 1.540916042600735 -1.154304329190228 0.1146938343432972
C 0.4521794498043864 -2.067611139359071 0.5482222733517348
O 0.7715454208120854 -3.0463009954754536 1.2196438987610099
C -0.9182505988667654 -1.7901895045194078 0.16083459573727507
C -1.9193140195501015 -2.723633584449023 -0.10754272718075959
C -3.127803680025749 -2.039221501594983 -0.42333061882053563
C -2.8463903788162352 -0.7063605130299253 -0.2952092613670917
N -1.5271665945165769 -0.5799909387391484 0.03836475230282637
C -1.144459339586377 0.7988125215160522 0.29182356612437643
C -2.503291371589643 1.504328855206174 0.41765564337216654
C -3.511181820266431 0.6245423464411531 -0.37103068172923626
C -4.897845699410711 0.6436937564530502 0.23921369369864173
O -5.659938126393638 -0.29135680939974223 0.42018009519069227
O -5.3132417284544005 1.8984274418263112 0.5265333177704836
C 2.5708772167640364 -0.8547712268023387 1.0130252072862065
C 3.6131304772911137 -0.002769338676179207 0.6312942003765255
H 5.3535821747804135 2.2302869349532055 0.5949848662498504
H 6.364813882836517 2.352514500067464 -0.849901721894224
H 6.245673109970793 0.7893608501933858 -0.03241569243946453
H 2.6434237492173986 0.6306383375826126 -2.5628259448955424
H 0.8080093613316937 -0.8859995243343634 -1.908119156485216
H -1.7824750349432452 -3.7982444701540112 -0.07214648112682116
H -4.08670822361301 -2.4812097004961466 -0.6643706590760514
H -0.5861791342046724 1.1572076665414714 -0.5767152675366671
H -0.5501312717931902 0.8575462947726468 1.2063355302239593
H -2.4676808109575257 2.5315433892966333 0.04012151607129453
H -2.784613477845483 1.5594586843916438 1.4780806201860472
H -3.5785186713956487 0.94770760238837 -1.415906026480196
H -6.221638130804686 1.7610805008150268 0.8712411630150655
H 2.5650694755943966 -1.2868413566625072 2.012219054019193
H 4.390158188274081 0.20859223104348018 1.3587425114709482
