43
ZINC000000000103
C 4.469512477450267 -2.6251685011319283 -2.2878853632223635
O 3.609866385066117 -1.49882946657552 -2.15698740891058
C 2.7320176478357103 -1.5112550900642534 -1.0988705369897471
C 2.586222844598778 -2.5419352559364046 -0.17994835997651606
C 1.6097623514894412 -2.4430877774076514 0.8074162626068117
C 0.7913252218179769 -1.302560735766097 0.9017167685122633
C 0.9752608488478935 -0.19334065521376256 0.04173114880926523
C 1.916679396456068 -0.3646662517240977 -0.9925701620098183
O 2.0279374276996114 0.5582607072633019 -2.007007716311552
C 0.10586696196472851 0.9994889975042646 0.212875000115822
C 0.37328783064124926 2.296713861046663 -0.21511279250114643
C -0.579185919272532 3.3051017686216397 -0.17742623354650924
C -1.862506821717111 3.104519023748091 0.2840040495967154
C -2.151639033486856 1.8453107077358506 0.7924838543053001
C -1.1429954519789807 0.84765553317244 0.8460068509947898
C -1.4941813043218866 -0.3852678244729978 1.6527255900357243
C -0.26892649335340574 -1.2686204021217053 1.9760085569508519
N -2.731350536471303 -1.033882064758665 1.163830996496097
C -2.5056407612880114 -1.916700257179207 0.019973587466492297
C -3.7915486937013836 -0.03286952889521345 0.8518276389541592
C -3.516463311924561 1.4327894864821273 1.286560011936143
O -0.11285805388657671 4.494330162272699 -0.6519614107183491
C 1.2334516714622434 4.132904036710726 -1.005272456115386
O 1.5689121886329385 2.7804990153383238 -0.6644904574740281
H 5.111187017987907 -2.4554791902090174 -3.1578627320961297
H 3.8957680651108406 -3.539596572020158 -2.471004172889384
H 5.117802660678118 -2.731532236617502 -1.4118491685047638
H 3.1892300031373306 -3.441966701990075 -0.2173069977578077
H 1.4776612756684253 -3.2679355263469154 1.5052728642938493
H 2.7520031657686674 0.2327096261915534 -2.573710073787942
H -2.5967763835098188 3.9003000188775867 0.2564423986574713
H -1.773961986950089 -0.01638300940447784 2.6528879231878064
H 0.22037452152076956 -0.8717601544823513 2.877474200350151
H -0.5992680136417917 -2.2815253406270743 2.2383980727286956
H -1.836470814407268 -2.742557938977684 0.2803425021983431
H -2.0862298333180993 -1.3865849092453675 -0.8423000739038575
H -3.4483018633667726 -2.381690423394146 -0.29146975830194694
H -4.724842560340226 -0.3706280762329408 1.3173379039614643
H -3.979784970243614 -0.012495701229505104 -0.23142162341961553
H -4.290326242667736 2.0824432930412797 0.8619524111384861
H -3.557153778690974 1.530142381304899 2.3776674869584706
H 1.9234493512350155 4.806712318083866 -0.4849480053995042
H 1.362833513519163 4.268438654642669 -2.0855305764240235
