58
ZINC000000000210
C -0.9870360319167687 4.184954262912463 -0.520647492912925
C -1.885684261284811 3.178590881476437 -1.228865232695072
C -1.340840645500457 1.756733693280658 -1.1028716588899146
C -1.1614132366886554 1.339059947037621 0.37572721083424837
C -0.7191881514424507 -0.16208470134982889 0.5522317370075478
C -1.9505453988215873 -1.1121107758457984 0.7788447411724562
C -3.0025720073750364 -1.0702936240424117 -0.34485318934985615
C -4.186262323467247 -2.001000578068502 -0.07669561506627112
C -3.744038893387072 -3.432191655822938 0.1923880726380812
C -2.718781395834147 -3.4861011173467693 1.3164264309323415
C -1.5262046027948062 -2.5800058397488663 1.0197102646746077
O 0.11148972000022307 -0.29576016631396856 1.725937933423874
C 1.4428205682705078 -0.48265565296252155 1.2418843540642888
C 1.2629751501919386 -1.1397439397329303 -0.10231778527033727
C 2.403625433701858 -0.9750654272119231 -1.1397375884361547
C 3.713221811423851 -1.6485156220364372 -0.6951790849685437
C 4.581094608445016 -0.7847045260563806 0.21722500099486142
C 4.574540941509448 0.6913448060196988 -0.17532570392853877
C 3.9387795392915685 0.9276085738988398 -1.5382093042691753
N 2.580847396147189 0.41147908726554605 -1.6085184602511606
O 0.03615571453375857 -0.5775210934073332 -0.5963140967522891
C -0.21889535673723964 2.3609389490586667 1.0520219592994569
C -0.7467140996306504 3.7913296922946462 0.9314349921992296
H -1.4398766480466951 5.1817639098815835 -0.5645891079378851
H -0.025453047420092675 4.247372163632027 -1.0450053143260456
H -2.895966311785582 3.222581108963442 -0.8040408560316221
H -1.9721149194319743 3.446797472896553 -2.287925830742668
H -0.37642893588036125 1.707664645090279 -1.6239376681208515
H -2.0119622908900885 1.0783314210982744 -1.6346094370460318
H -2.1271581845138985 1.4546629777272142 0.8879132378249073
H -2.439960201771228 -0.7783391810184626 1.7060465362033381
H -3.4094970063650987 -0.060049662704881296 -0.4474855107193128
H -2.53919813150436 -1.339963549038076 -1.301606185452617
H -4.868946624331213 -1.981662759411956 -0.9338821865612772
H -4.750829570683516 -1.626972541081554 0.7865874069671729
H -4.613334422626599 -4.045968125513685 0.45358372610264147
H -3.3120144514093313 -3.8603249417828964 -0.7204330893254189
H -2.3730233770063514 -4.517522613655236 1.4490571405268473
H -3.1869474250245347 -3.181089723928536 2.260241888784011
H -0.8247597322054466 -2.6443864997884927 1.858894157459228
H -1.0123760271596316 -2.970249005764116 0.133606687441931
H 1.9225060222250703 0.4955290917934583 1.182595092387066
H 2.003513659258605 -1.1023965967402112 1.9464444175592166
H 1.0853346194584477 -2.211694682192757 0.04113213772827256
H 2.058116298240815 -1.5208399488510143 -2.028491455855228
H 3.5116394204631556 -2.6120207397748705 -0.21208333662498563
H 4.299555697181347 -1.8842620859340657 -1.594323767918119
H 5.60881724328655 -1.167527058060798 0.18982468731824906
H 4.259107748829306 -0.8839799582020011 1.2594906677952384
H 5.601186027369289 1.0762382183520636 -0.1734510077535335
H 4.035845186656543 1.2691251522519116 0.5855975062497869
H 3.9227125578290076 2.0016067656520495 -1.754788668056313
H 4.548823394560187 0.4678384951867729 -2.325148405800353
H 1.9092374254303819 1.0303192206992065 -1.1564975999658957
H 0.7754386221523485 2.3157197307219994 0.5938553197950017
H -0.10416630523068121 2.130550781831561 2.117170983079281
H -1.6833196733894125 3.8827591090343834 1.4951711214975605
H -0.03187511489772473 4.486104235333011 1.3867892290676087
