45
ZINC000000000041
C -4.413928636433292 -0.8757223797442452 0.8838267680690727
C -3.8153379329818278 -1.3388133477705928 -0.4432883125739427
C -4.6020637070281305 -2.554429744356297 -0.9501372574866241
C -2.336621110449477 -1.6777874099068437 -0.2765361442892241
O -1.9804981905249228 -2.8635802757046864 -0.30432452721770636
N -1.3966215595354494 -0.6887220383014357 -0.04931966397563529
C -0.006605006424417107 -1.1083575732697584 0.19438227977124398
C 0.783364933590868 0.1267477589847479 0.6483090165973077
C 2.1755941220774178 0.22784298765054697 0.01354466172085675
C 3.09869038629573 -0.9153091170818435 0.46386274886078893
N 4.400787313839508 -0.8957113663178994 -0.22194521417380017
C 5.232477860602952 0.23646028515973042 0.19359519637118128
C 5.120117407571708 -2.148652018945724 0.030628333410897907
C -0.16664419128223534 1.2288736682950383 0.2549492649162581
C 0.09168385066287967 2.5975828772274236 0.29201657658837304
C -0.9368350153299109 3.4729123611647523 -0.06869962720671896
N -0.7013298633725413 4.922364565838438 -0.045143601619779775
O 0.4157272977654283 5.318784500852628 0.31642695030091006
O -1.6343817981895647 5.6631080549613175 -0.3860488476302781
C -2.1957091774839435 2.978234957484249 -0.4472429998840385
C -2.4385966759110254 1.5959493713515176 -0.46466092738467685
C -1.4250722677283225 0.7191913326703679 -0.10696604818887993
H -4.38197769249531 -1.6796881058775066 1.628334123762081
H -3.875652635673865 -0.027411427978236955 1.3138161609803525
H -5.4596501736687975 -0.5777125562000143 0.7537224051676578
H -3.9165717881781883 -0.57995916042708 -1.220040569909973
H -5.651457465063592 -2.2925818640193953 -1.122693025032098
H -4.573166105444187 -3.3824307380243583 -0.2329465315115116
H -4.186816372674693 -2.9193510068774473 -1.8960919031764991
H 0.3753077179677912 -1.5272190708354751 -0.7457652958518841
H 0.021671513547463855 -1.9003869610598392 0.9521500205368303
H 0.865461514311217 0.12833210346546237 1.743053498479
H 2.6207259215591523 1.189671355512943 0.29133350460181195
H 2.0892390951295408 0.2281981813025341 -1.0812400624499148
H 2.5992562978395926 -1.8640087481849066 0.23236411231431886
H 3.229735707546371 -0.8844646279342778 1.5534651126112755
H 5.4052778797434105 0.24667359499062932 1.2757960057993718
H 4.781305507851561 1.1900576445744433 -0.09661002526852333
H 6.2068144034228245 0.2019032814207122 -0.30765967862284477
H 5.327118654530561 -2.2978714060805485 1.0966224345844604
H 6.07181911529231 -2.1638240020042816 -0.5124526077993787
H 4.542341300650617 -3.0057196861817803 -0.3332026713750013
H 1.0664525400148503 2.9660319851317127 0.6003037819715357
H -3.0007895031512573 3.6548804834572954 -0.730609032506696
H -3.4246434728019244 1.2759132815896148 -0.7666170883731622
