38
ZINC000000000104
C -3.678915999267533 -1.202097388875511 -0.7704884426587654
C -3.497312529366582 0.193266678195744 -0.15145188927349434
C -4.357341785425278 0.27818517931836323 1.1250508881076022
C -3.9856579208080585 1.2727241327706258 -1.1313719047562607
N -2.1028664437937015 0.43414973371430965 0.2749707638792021
C -1.0840441640640572 0.34143308879424406 -0.7848489069174739
C 0.28479659577128263 0.842506614793452 -0.27330490407280505
O 0.10386669783043911 2.155442381540835 0.2799550117531162
C 0.8955516363618564 -0.09207538427698837 0.7835880737152908
O 2.2548836850470457 0.25166050971287834 1.0754785475806032
C 3.2675903936093564 -0.26429033015563985 0.31330643515216167
C 3.089973989735821 -1.0398189904191708 -0.8377756825985797
C 4.194649857428236 -1.513892553945142 -1.5534082071009931
C 5.486906886637157 -1.2183361291331187 -1.1294633490472368
C 5.67785389039016 -0.44548015141467323 0.01379326068131684
C 4.574686309704278 0.0335620741066246 0.7366609268947814
C 4.816122982347068 0.8191146597130644 1.9146204396344524
N 5.066067696708277 1.4379085613523739 2.8653498240353956
H -3.3059488604296954 -1.9865215639635954 -0.10182839671566128
H -3.1539374149121833 -1.2961739241292103 -1.7271851804106675
H -4.7380677614110125 -1.4100276179085807 -0.9623812454785959
H -5.418640302879432 0.12354073759809295 0.897909159698323
H -4.2634073905538585 1.2592377036793272 1.6060383069803112
H -4.065437104111261 -0.48307158303392317 1.858457704173773
H -3.4913199324497843 1.2009901653589556 -2.1056587743936954
H -3.8084712493127846 2.279326306903356 -0.7350996543031291
H -5.0626837169927725 1.1769441966143523 -1.313125717568405
H -1.875423163807761 -0.22409203527520521 1.022160345786315
H -0.9860353404902285 -0.683907645767291 -1.1562572218576834
H -1.3655344340830846 0.9866046256823716 -1.6229491421190578
H 0.9683279152638307 0.9560785803956371 -1.1205564765528078
H -0.7864042829305946 2.1423702283795296 0.6878705181145564
H 0.8038370402338166 -1.1508518825499274 0.5163342397308741
H 0.35861170487180366 0.03427854834850908 1.7310281768171287
H 2.1058272088626624 -1.2911734115931908 -1.2171571060355346
H 4.043547886756425 -2.114042803870631 -2.4481479189841586
H 6.34365378809607 -1.5869770252284203 -1.6885619819083613
H 6.690693631434957 -0.2164942854329193 0.34112084021751526
