28
ZINC000000000136
N -4.8822661038704025 0.8724414025558238 -0.48658642559776877
C -3.956224352652041 -0.10219623449430171 -0.6217893458041139
O -4.055322814696012 -1.0209842390039205 -1.418098355069878
O -2.9456035337589026 0.10259120527468177 0.24901610089747397
C -1.920355126585046 -0.9070901818985916 0.2029209329605524
C -0.8607399937337815 -0.5749518952761906 1.2611649334618726
O -1.4320297650134763 -0.7267510444832033 2.5688966145341094
C 0.3595597907837019 -1.495858801884187 1.1371278372289835
O 1.0177545899336247 -1.3588609076738722 -0.1203380391420505
C 1.9148101938485964 -0.34408893494298487 -0.29327574681174506
C 2.323677286223966 0.5766469727081615 0.6722141953549143
C 3.2550911778691796 1.5698774853309658 0.34615903677590354
C 3.7775557613115076 1.641313184294156 -0.9434944462605573
Cl 4.920997055907866 2.864112677960036 -1.3370549017779287
C 3.3777602829082767 0.7270418107136463 -1.9125989288431333
C 2.4485405623456966 -0.2626553169108374 -1.5839106192068957
H -4.806701905594623 1.5122457496613264 0.2885314544598867
H -5.750881162787536 0.7790805933929225 -0.9903671296888937
H -1.4779251164783611 -0.9114524101922766 -0.7994945040299479
H -2.374621564587958 -1.8815814188140974 0.41914053889511194
H -0.5768423276091358 0.47752509330716614 1.1507241601968372
H -0.860367586946336 -0.25281568164955087 3.1965718275842296
H 1.0506551185445188 -1.3829229640024268 1.9811626591089895
H 0.0219808818466583 -2.5380809962457302 1.2047191320762318
H 1.945403893932034 0.5564685231008185 1.6878610966766456
H 3.5690276744890177 2.2831761511909714 1.1039859114501809
H 3.7808458837700436 0.7754407300994128 -2.920333284769368
H 2.136221200594081 -0.9776705521214724 -2.3422235055487097
