21
ZINC000000000053
C 2.3850626413664737 -1.5338850853328678 -1.9629679557259863
C 1.3913845896533719 -1.3057638288861082 -0.8635296048748907
O 1.4725480316737123 -1.7957756516762517 0.25557865131442326
O 0.3764653881368227 -0.48232498239514476 -1.3382351922536817
C -0.5486794389251819 -0.14385519391801785 -0.34633616195811673
C -1.745515169369699 -0.8674779167522295 -0.3286637625531127
C -2.7225197708126525 -0.5614187909237768 0.6166148869290794
C -2.508569271800574 0.4700013573956259 1.5304103502516595
C -1.3183335100060114 1.2041718651569333 1.4976766624944937
C -0.3241660073778344 0.9098424783878757 0.5514652718700469
C 0.9307597046264232 1.7047536799938185 0.492174479613375
O 1.8270737547139018 1.6030703688704908 -0.32504452984159915
O 1.0103034132380306 2.6183593401979017 1.4790105176737838
H 3.2168259313273153 -2.13214848505239 -1.580188599514357
H 2.7806543943047615 -0.5763660388036079 -2.311072158939697
H 1.9102025304866623 -2.0763176330581845 -2.7841002907696284
H -1.9116008101409097 -1.6702374989235997 -1.0415721806549738
H -3.6503279944678244 -1.12781874937746 0.6428790212810604
H -3.2702333196281885 0.7068626590362207 2.2699124251989464
H -1.1798417894992992 2.0084432302284427 2.2167670731635205
H 1.8785067025004634 3.047884875831912 1.3292210972960834
