53
ZINC000000000203
C -5.832213609630581 2.2162886486136175 2.209186709773774
C -5.439881339766042 1.358709497756477 1.0432167582506442
C -5.8350699526456795 1.6995822980406738 -0.24935368397726357
C -5.436515395666499 0.9196586624810975 -1.3350499090052996
C -4.632118489364329 -0.21938516015361645 -1.1582658003816166
C -4.223414536826289 -0.9941895720489137 -2.381703091385495
C -4.208175564602703 -0.5641811658442301 0.14190231264635778
C -3.299605585506751 -1.7435854320806765 0.436646195728536
N -1.9135953848090723 -1.3457273196792958 0.5515313384805003
C -1.3293186223873419 -0.9206042877269315 1.7044972795244393
O -1.841065745407101 -0.7926177561161278 2.8041157096532654
N -0.0003689672768338708 -0.6679473257115144 1.4550804592043194
C 0.33598140342299526 -0.8604870251558563 0.06490553532016576
C 1.5326029260908367 -1.7779532595651724 -0.13889685999086415
C 2.391166999277271 -1.0357419000245978 -1.1553040961140126
N 2.124645137216248 0.3980497760480925 -0.9482826453431975
C 2.9012514210149543 0.9763276258663883 0.1767322825482894
C 4.405722335963025 1.0606888077888255 -0.05048073571537765
N 5.167881108053509 0.055280728777312216 0.43761836701103485
C 6.498859813720861 0.12355679317678282 0.22790536068081477
C 7.339714410943993 -0.9981688586349372 0.7584309881309119
C 7.081677086387399 1.1700604397985401 -0.4501344336895912
C 6.2154883447220595 2.1379516833461603 -0.8942218519014432
Cl 6.8028638415245615 3.5093497321801626 -1.743710560528374
N 4.888064835586061 2.1248465475536444 -0.7129909541944243
C 0.6719480397736652 0.443028654611404 -0.6717774109150099
C -0.9838955136941789 -1.4471684174230468 -0.4456909180473797
O -1.1589846116388303 -1.9170092150244735 -1.5616706854764937
C -4.61987242835191 0.23932073687098646 1.2258857501482907
H -6.839346034894796 2.622554891005534 2.0712596544654973
H -5.127251708773904 3.0463785544939306 2.3173191275398843
H -5.839744322690041 1.6376876065137733 3.138655057438942
H -6.452885380043017 2.5775605166119373 -0.42260224035554106
H -5.758702878800821 1.2131968099163262 -2.3324678054042094
H -3.182226794360446 -0.7776831663352223 -2.6318404004089144
H -4.359051234404311 -2.06908525690671 -2.2353675544714444
H -4.836226796137746 -0.7190651658631093 -3.2476017419702194
H -3.3918231492708824 -2.517144674792063 -0.3313108115525508
H -3.6127390879470385 -2.2078536577019436 1.3803857183198018
H 0.6016292440288753 -0.2946375744338135 2.1773790106384046
H 2.094528501699027 -1.910776880719496 0.7933220831326547
H 1.2591654437690976 -2.772116863025862 -0.5072355642142221
H 2.0663007450357123 -1.3021409585467518 -2.169493620029442
H 3.4469961261199478 -1.3135902736733391 -1.0908228699619666
H 2.55680581631714 2.005116510660132 0.3457790488619581
H 2.7236264350853054 0.43459599845909913 1.1139763842583648
H 6.724976318626876 -1.7200431483905378 1.3053385160473783
H 8.100406426453803 -0.6114527736855291 1.4440823972998502
H 7.831936872629847 -1.523383757746006 -0.06602837922955598
H 8.146915003437927 1.2296483005242758 -0.6225756500035391
H 0.3801937817775474 1.3421730486731158 -0.11585675274293143
H 0.15209424587634918 0.4936504260064379 -1.6368773739212532
H -4.289349529664413 -0.011522448763869975 2.234383202355678
