40
ZINC000000000161
C 3.4812838862758455 -0.6672058819714674 0.5361148779106412
N 2.7642568521091104 0.47611075597350777 -0.03457858164875301
C 3.721488098138542 1.5248480241537148 -0.3980218468663181
C 1.9726432988025377 0.0894386052164952 -1.2271886131666276
C 0.758969231729247 -0.8557169139964353 -0.9881179478112787
O 1.2590318772756297 -2.1919486190673996 -0.7880775395357097
C -0.1747527507547584 -0.3976965784679209 0.178335539465501
C -1.3474809183074439 -1.3497844645431085 0.45916033106850646
C -2.064217041164465 -1.9990084100012004 -0.5595872345694084
C -3.1287446402029957 -2.8502184962513755 -0.25299542581137957
C -3.4988255556176067 -3.059611750758406 1.07290605065348
C -2.808890071433128 -2.4142055416538355 2.0950452406847044
C -1.7447639701352038 -1.5633696302371398 1.7910937107456117
C -0.6717135969528162 1.0385329353617678 0.015176358621076283
C -0.29406556727294364 2.0154045355490764 0.9520978727000259
C -0.728392162902954 3.3366845423327223 0.825615414851889
C -1.5483384107728715 3.7021815442850503 -0.23993059837139588
C -1.92850736720805 2.7437093434218807 -1.1754227166020494
Cl -2.9369232078540985 3.193058905948712 -2.496222234753326
C -1.4964761617441835 1.4219322601060989 -1.0552661178023255
H 4.110508127827864 -1.1752290501167673 -0.20334100736408176
H 4.124100646416251 -0.34234319992668755 1.3627999200359018
H 2.788756432568718 -1.3925700392597855 0.9721368931525612
H 4.4342909531713595 1.1891551782234517 -1.159994706940976
H 3.1983414829179337 2.409390353261609 -0.7784341077336231
H 4.28535868957556 1.8538011210074639 0.48212896592821713
H 1.5786682532289968 1.0048174408935029 -1.6875544868947703
H 2.6360714652457995 -0.37287167321213605 -1.9711244997244863
H 0.1979665792157729 -0.8869395642091189 -1.9297258869155516
H 0.5208892554874213 -2.744991757305748 -0.47714807013805804
H 0.4461000460940027 -0.4471994359393729 1.0845480528866152
H -1.8140323927448654 -1.8507445815307642 -1.6067154763372773
H -3.6747819286930636 -3.345908150449303 -1.051901896882945
H -4.329710631365715 -3.7191507474756973 1.3090626414295188
H -3.101608768354529 -2.5681156519395456 3.130463673132194
H -1.2254672091508332 -1.0614884584225444 2.6055604896895326
H 0.35764169570693466 1.7526584438990298 1.7841580470783758
H -0.4229136782863553 4.079789451888323 1.557830505946849
H -1.8844897886873948 4.7307309133246305 -0.3353562304808897
H -1.811271052180633 0.6940742418889113 -1.79752935963081
