39
ZINC000000000129
C 4.97299225184669 -1.748502597134474 -1.7483485021011045
C 5.047278515319728 -0.5641960269465334 -0.7949646595601244
C 3.809581719772823 0.3273567920652844 -0.8675049538106032
C 2.583735558783849 -0.3072122318182005 -0.2531813366360637
O 2.5769516070497165 -1.285842001289551 0.4805537398392583
O 1.4766072863573252 0.40222228902757406 -0.6046491803850718
C 0.20338815151831843 -0.10358694499490935 -0.12727674742581407
C -0.9013860905475835 0.6575161895986954 -0.8755230856545716
N -2.2352243655062862 0.15601852244925082 -0.5370167065753941
C -3.2942967601927426 1.0992661976693279 -0.9029268363181479
C -4.477269943766827 0.5909459984648221 -0.10588294073781648
C -3.8546761835328094 0.24985427137852664 1.2402873813638178
O -4.588560718981018 -0.7890995820544313 1.877713177045552
C -2.4097658062810803 -0.17011808916498022 0.9008007606131534
C -1.3614634840777977 0.4639361790537751 1.8422566173221675
O -1.4772337240734734 1.896725755074867 1.8425747414150653
C 0.06554420659057211 0.08156134735325685 1.4048508886999722
O 0.4314029896417635 -1.1362905776951815 2.0770415462947303
H 4.850285814352125 -1.4115028396492273 -2.7826396319817803
H 5.895428365848539 -2.3352627200091587 -1.6917489381069295
H 4.137755437279483 -2.4112088007597463 -1.5024172397912732
H 5.92763442730007 0.03543663072966328 -1.0549257748107344
H 5.199279877385697 -0.9292133120100652 0.22735505076600018
H 4.00283421509548 1.2559037693223647 -0.31883322241662254
H 3.595841100039521 0.5790331131087657 -1.912564600404625
H 0.1436863741233843 -1.167010506785878 -0.3982217672114782
H -0.7958178845143841 1.7312935348963967 -0.6690698999444151
H -0.7431434699638594 0.5531115171315812 -1.9562885329605944
H -3.4955634273288707 1.0865074046773557 -1.9783620945404412
H -3.0559078577100447 2.1267690810020246 -0.6003744306109573
H -5.267643742628604 1.3420174519181773 -0.009220548580218455
H -4.922420032615973 -0.2947530154747251 -0.5762031391474782
H -3.8848625935738403 1.1288608548827836 1.89252885684175
H -4.587466795120458 -1.558202166627466 1.2800661709187076
H -2.3157550477102533 -1.2602297613247786 0.9943297008908734
H -1.5440004797762341 0.11716130846519002 2.867515693277255
H -1.7789886792250211 2.1558083088949864 2.732063205120124
H 0.7690196271349267 0.8478344485231696 1.7529331444554728
H 1.3021995616819115 -1.4129097919326026 1.7144286432127094
