50
ZINC000000000081
C 5.123571029788273 0.28055526910913775 1.2396667584994951
C 4.029092785481622 1.2598765029461985 0.8537974083644571
O 3.2340743315347753 0.7464098610542146 -0.21227129022521513
C 2.196864114256042 -0.1333627771860243 0.21970753654647981
O 1.210279060733889 0.5641048917310401 0.9931438217428912
C 0.23410241614589605 1.1359791156856744 0.13626767710563548
O -0.4949955506504261 2.1618859826281898 0.7770974781698793
C -1.5615542869233336 2.5604530036694944 -0.09330061709976561
C -1.5046112937461282 4.088564430329117 -0.1496637800337598
C -2.8691073131248097 2.12458370596108 0.5605589273756851
C -3.1543100736747784 0.6356546098320546 0.43432205472674024
C -1.9366014584222062 -0.31754175835449283 0.5550817583130825
C -2.457078402581163 -1.778608013595571 0.357523248246708
C -3.1541989273763487 -2.0512930347444596 -0.9868724969548585
C -1.3524157739584062 -2.812232243838355 0.5899606523654579
C 0.04945325280552621 -2.297168040251556 0.31195035292993795
C 0.10890687370305187 -1.216370589065953 -0.7843313746690714
C 1.5815375224264565 -0.7957765062265961 -1.0446098618864688
C 2.477081284369199 -1.9249066459778468 -1.5618765820035032
C -0.7401944236306883 0.05007810732845902 -0.3998870183997207
O -1.361976658326382 0.6169723080517383 -1.5757062812340963
O -1.4267594756254438 2.104782767151097 -1.4614839233095531
H 4.706917734347137 -0.6365447720792834 1.6662001956215315
H 5.796673643480761 0.7262602640255338 1.9777842810450312
H 5.706449967964647 -0.011461209987427438 0.36000414390882945
H 3.414493232445475 1.531838992959874 1.7186856824689638
H 4.495424900849435 2.1796711212883895 0.4855270249148834
H 2.6213119840292913 -0.905614219953342 0.8702692300486411
H 0.7684780941204075 1.6394642129789743 -0.6832378311242882
H -1.5867579643699006 4.531815283583139 0.8486590393903827
H -0.547194094447985 4.41774005488734 -0.57082684472017
H -2.294684316855058 4.494631908229167 -0.7903570778253259
H -2.8500182870629516 2.384335315199928 1.6270163997666096
H -3.715444496522166 2.661430309327375 0.1135141862527947
H -3.6427938675538103 0.49884961507106323 -0.5369643673330137
H -3.9084420509564666 0.36063522679691584 1.1830206077721317
H -1.5650667240786917 -0.2572302809691525 1.5882086402861435
H -3.22191583733057 -1.9631344525000538 1.1257268065885924
H -4.084740046984299 -1.4847819743639767 -1.0814010222402273
H -3.435239518023684 -3.107685557805888 -1.0679518109376938
H -2.5212144994699255 -1.8119827734721956 -1.84418754072025
H -1.3882240641199481 -3.1464188869691156 1.635341530649053
H -1.5330715762063538 -3.714929279890956 -0.006697607773890347
H 0.4562131511612614 -1.907681779433456 1.252695599482102
H 0.6755061499736585 -3.1564744028097333 0.048530613732635744
H -0.28002241603282657 -1.6412340147754523 -1.718238011667352
H 1.564670689398114 -0.05586025353559465 -1.8587032556550747
H 2.0156214508432964 -2.4239063453005896 -2.42016187227766
H 3.4441911847491715 -1.5267340719615772 -1.8878327527968812
H 2.6777185434471455 -2.6776389747742484 -0.7936984354271405
