36
ZINC000000000115
O -4.593710178426715 1.2698630938900488 -2.6867772432007526
C -3.7283741201419356 1.8459065948495692 -2.046480592544687
O -2.899887160080079 2.706467674220023 -2.6753016794883258
C -3.49145429832214 1.7720633303944524 -0.5565362359862399
C -4.506861216745694 0.8395004095150679 0.13998061763149275
C -3.828166248818948 0.32528102663304237 1.4145209038558162
C -2.391729475589408 0.32821799478530256 0.9968802251854343
C -1.3317990558721944 -0.3120704475235243 1.6201052765048152
C -0.040249116280026156 -0.14570215545895887 1.1099505755920167
O 0.924888964742964 -0.825440762914444 1.8014322340276954
C 2.2829418864518582 -0.7241955346393284 1.3700749659899314
C 2.584845968202059 -1.765531385969278 0.29828283302248493
N 3.9493178942491034 -1.6813177528959327 -0.17260940020441037
C 4.381720883964744 -1.0145564790403545 -1.282963317887395
C 5.740580986751195 -1.2253274854624245 -1.3112118245479958
N 6.135864235200455 -1.9998810046023994 -0.2506684524405995
C 5.03503620095789 -2.2685190346089303 0.4113963057008344
C 0.16167385600982842 0.6707472144911107 -0.013072135104980854
C -0.9140037516565708 1.326471252507782 -0.627829925438092
C -2.1912788855238525 1.1412084291515123 -0.12382224654774833
H -3.195510427536358 2.6719068755837068 -3.609677158476714
H -3.573642498714102 2.780630886344198 -0.1328410957446615
H -4.751143543393509 -0.018963995249369495 -0.5010848576589533
H -5.451792455672182 1.3493930581910476 0.3563057999114128
H -3.9791815818725595 1.0167018771703236 2.2502608643341566
H -4.185823722612148 -0.6729884833235132 1.6838438836557232
H -1.4974155270634346 -0.9296063770704102 2.4979361614822446
H 2.9010109608309014 -0.9341588285380548 2.251921887412626
H 2.5525737481468913 0.2959027366334614 1.0712398681955824
H 1.9206384896825026 -1.6568849544436945 -0.5662858967801324
H 2.420510816420675 -2.777985948237069 0.686529361419603
H 3.719005129731163 -0.46770780578825477 -1.9391594099659872
H 6.454854444592643 -0.8607430898926045 -2.0362739307516757
H 4.9726136497582605 -2.869201223335461 1.3092535461532442
H 1.146891740532215 0.8335819517228266 -0.43562128385698284
H -0.7329465919090217 1.9769383428249714 -1.4788845984484869
