41
ZINC000000000154
C 0.6107657743414452 4.861133961388186 -0.4212873118284581
O 1.2654326115572374 3.598203628676625 -0.4298596686268359
C 0.5153167087089416 2.5073998395051507 -0.09212573450390511
C -0.8226401601455788 2.5169298754024676 0.2862232652400947
C -1.4781295870120863 1.316455213025725 0.5931644537241462
C -0.8079964524696234 0.08765517675032077 0.5339813007064476
C 0.5453834108281772 0.09467732282635453 0.19137355657379257
C 1.1963995851785556 1.2915641366959478 -0.14188923860069097
C 1.2249480870361127 -1.2165152907364876 0.17891770107466162
C 2.683911888438982 -1.3107854045934717 -0.06772782109378364
C 3.136809353938265 -2.028045142059227 -1.178198148120786
C 4.506948897426295 -2.1377041987321816 -1.4153447173834737
C 5.41707452130741 -1.5449680701949242 -0.5380612335716777
C 4.9619027151002735 -0.8497981943280387 0.5840164413467677
C 3.592751362310704 -0.7367746767982574 0.8271858088695072
N 0.5990729123628764 -2.3294694294797242 0.3819814475905631
C -0.7410824475253572 -2.361309101306987 0.6594115325280406
O -1.3094867720576455 -3.4431357671468925 0.797972941436444
N -1.4432513379570895 -1.1569580906931316 0.7894038455491938
C -2.8667711329672088 -1.2496087568661853 1.0964161322491506
C -3.6858760692298316 -1.3798425953691278 -0.15777507502455326
C -5.191918511838684 -1.339596394826457 -0.06897573346312315
C -4.4531443896592995 -0.22166717540696493 -0.7473937521969382
H -0.213214090294744 4.883616986745501 -1.1421444182450369
H 0.2635768203036862 5.117838995434406 0.5849549175320377
H 1.3403176403663666 5.617920561660555 -0.7252474455126822
H -1.3939594394082975 3.438004112512915 0.345890642437184
H -2.523468499354613 1.3856183540311422 0.8713758486015937
H 2.237211001340073 1.302260997714007 -0.45342712959082887
H 2.427395406293525 -2.5046456866590048 -1.8501553869952214
H 4.865366579524465 -2.6935907567661435 -2.27806109853097
H 6.484820137962471 -1.6373175971404226 -0.7223379780361034
H 5.675542319913138 -0.4057523573355728 1.2735078249902712
H 3.244168497059676 -0.21466242854960027 1.7140427933082938
H -3.0430481957111617 -2.141019953036678 1.7112310793114764
H -3.1856379694894974 -0.40956948314019276 1.7218432017774883
H -3.272139493346408 -2.1203385186032664 -0.8360979983779736
H -5.6525245417107595 -1.137637739995673 0.8914118383802403
H -5.751798247694633 -2.0310993702916993 -0.6893748502912402
H -4.510052075343184 -0.1570823424636692 -1.8286735610770104
H -4.448976818082353 0.7396153601511434 -0.25014827215619423
