42
ZINC000000000169
C 5.007718221096418 1.0471184440441148 -1.3557389997922435
N 3.990831064280314 0.08478011195073615 -0.9209801119535945
C 3.924244180841475 -1.0225204233232845 -1.87788423578779
C 2.692626237678155 0.7643954741458703 -0.7668288509282122
C 1.6379482348922263 -0.11445528362377116 -0.07794382171951413
C 0.3517423700696753 0.6769988259781247 0.19279707128313298
C -0.6980915730707945 -0.0794639807791355 1.049821591599094
C -1.74032946232638 0.9332186114808032 1.5228451674984207
C -1.4578018704095985 1.8128762904296443 2.5799962255240216
C -2.379117550228585 2.7944116328550135 2.9438221738866406
C -3.581007541439402 2.913403049020072 2.24896527313415
C -3.873405586314554 2.0381542361840026 1.201352813255725
C -2.972928698499024 1.0268556381773717 0.8531993127918492
N -3.2613603753659053 0.1353301412556246 -0.19834808375333637
C -2.5646692984211317 -1.0788927259772834 -0.3459629425454751
C -3.0818264427682958 -2.1031208196626463 -1.146734771113077
C -2.404831726564515 -3.31883375005812 -1.2609262490054969
C -1.2048468008139557 -3.50760459987694 -0.5805049860050725
Cl -0.37727690587378 -5.0106383583023675 -0.7100871639574784
C -0.6606669147033879 -2.4829438909366592 0.1918912472259958
C -1.3189388163095572 -1.2465677508612187 0.28802215554712224
H 5.114629211316531 1.8539357903388005 -0.6219938296281675
H 5.988746328888458 0.5645372135452653 -1.4306253630504853
H 4.766304138217203 1.4928593059645143 -2.3276202694808052
H 3.2703226757126784 -1.8221318927445196 -1.516748628512987
H 4.912378190471124 -1.4798358123723847 -2.0054358486594985
H 3.5688916988242156 -0.6974764082038182 -2.8623626044494013
H 2.8365457574770128 1.6567162226166159 -0.14353073965336252
H 2.3147676545959435 1.1117580281064405 -1.7374480089279347
H 2.038837199833521 -0.49768600604895713 0.8682154703324594
H 1.406878036416521 -0.9706250152959419 -0.7171531640272627
H -0.09133982301698755 0.9829668857554242 -0.7648985761311414
H 0.6357452296874472 1.6052907657107713 0.7063686195889054
H -0.21858443384012408 -0.4892305486412452 1.94963617283377
H -0.5111465683416817 1.746401331084763 3.1109821681664847
H -2.1528344862843576 3.4761759974641477 3.7596108336035856
H -4.2919533763913424 3.6885260403287377 2.5226333133675283
H -4.813926201538059 2.145094927818121 0.6688929489065901
H -4.241537305050275 0.09238843403677867 -0.449441642424288
H -4.023200034179214 -1.9689820327639604 -1.6721544845848824
H -2.821819523382669 -4.113108726905557 -1.8737461617791458
H 0.28428488483602854 -2.6400753719144148 0.7060469793250536
