38
ZINC000000000163
O 4.4321652033246615 -1.6652811521676871 0.319465928275047
C 4.725559313358674 -0.48364244514584265 0.24912687664641758
O 5.989097837439796 -0.12921791538598257 -0.07176933894396695
C 3.8465290140330057 0.7147635074241029 0.5382759060896707
C 3.7279392185036677 1.6538563569962055 -0.6808296817838665
C 2.4728543456222685 1.2216577063212917 -1.4551203740022556
C 1.6261249947941034 0.6686651104838823 -0.3534736943074725
C 0.26505099804838206 0.4075048019272363 -0.37642950696511646
C -0.3604054344592514 -0.15265596022651962 0.7582754832689328
C -1.8596233090489147 -0.430801167207274 0.71958724521013
C -2.212923415140104 -1.4945474530293104 -0.33673699394025536
C -3.714663310994009 -1.775252348435284 -0.36589549938177895
C -4.5230348507662725 -0.49763810899481264 -0.5727410108827728
C -4.1782464977609735 0.5631227707630581 0.46864902162305105
C -2.6787253661966974 0.8555548254333949 0.49987504141445555
C 0.44100658323213704 -0.44588975062537917 1.8897398489571269
Cl -0.21299162244756267 -1.1409759033409266 3.3341750451608414
C 1.8195395059062252 -0.18782462839862693 1.8943569644492262
C 2.3992218622157697 0.369906524946006 0.7676926566303883
H 6.444515794429309 -0.9884694086892427 -0.20064563929594625
H 4.255425715619938 1.2476724772155583 1.4039188209084854
H 4.611791878886589 1.6643366814064704 -1.326669841618293
H 3.582692959129181 2.6824805851660183 -0.3208277763215152
H 2.0031927490760264 2.071505870168658 -1.9582051125091344
H 2.7060555254871095 0.43662058151978234 -2.1818082083337518
H -0.30566507730940806 0.6351233365164136 -1.2729335577246317
H -2.1843885961276075 -0.8348957397639234 1.6842390949987966
H -1.8963131949097325 -1.170456813053054 -1.3360093581735593
H -1.6742231859295438 -2.426615338692011 -0.12530583798963674
H -3.940167539355139 -2.487655371007558 -1.1674764248711877
H -4.015578384267229 -2.2495044946115677 0.5763802004723619
H -4.3266180986800125 -0.10056649474999112 -1.5763007447552688
H -5.593411056018066 -0.7272399811774589 -0.5240178232925266
H -4.728428773331606 1.4855253462408267 0.2510028323481861
H -4.504749077807376 0.22296314685445517 1.4591040591795565
H -2.466211441087416 1.5762120575901495 1.299311221078871
H -2.397400951222822 1.3418890641520813 -0.4423198929965871
H 2.425005683754634 -0.4302302764228851 2.7627472509265383
