46
ZINC000000000030
C 2.1185539753169516 1.5905002683410827 -0.5911282041294752
C 2.0628529887259606 0.20379648278303839 0.06906631430969283
C 0.7956645782369518 -0.6251207612291607 -0.3131521306678929
C -0.552558812032059 -0.3934687472237743 0.47953426155388956
C -0.350927423561566 -0.9023961272889497 1.9570557337216545
N -1.4650107533977443 -0.9858893317032557 2.7546876560325386
O 0.7318644221274397 -1.1958733228456844 2.4593339860339243
C -0.9148058516716847 1.1148999159994226 0.40766576646083996
C -1.2460272745270846 1.6990280442148968 -0.8361368488050072
C -1.5840761897258337 3.050132975888402 -0.9374516815480908
C -1.5891179720321236 3.8520807554297702 0.1987413186667526
C -1.2514394798089088 3.304700098870174 1.433233835083362
C -0.9137252399995162 1.9516101871486022 1.538054915621096
C -1.6946305469493568 -1.2901680239753124 -0.13909450361046446
C -3.0391146451875253 -0.8578683369741176 -0.1705110923454565
C -4.057070557586256 -1.6692818098622622 -0.6797763007420758
C -3.762990151247666 -2.9421941834899448 -1.1533718817238419
C -2.4534711465442114 -3.406947992084469 -1.1076904475605343
C -1.4334979003997388 -2.595725618165998 -0.5993133773242173
N 3.2573416737408722 -0.6219369611420347 -0.2617439239038107
C 4.425826196756034 -0.25121851068185064 0.5347215743078426
C 3.5923663016039824 -0.6856008830812003 -1.6817283869045045
H 3.111946456484638 2.042688591246338 -0.5026463674076468
H 1.4410118964552905 2.2921981415593993 -0.10309083601550391
H 1.8625286417265647 1.5480091068477457 -1.6548776974404613
H 2.0545321198865767 0.3583879217374804 1.1530280628386058
H 0.6096549941527112 -0.5141461133861718 -1.3906745520297106
H 1.0739534224871035 -1.677790565290668 -0.16868337959320578
H -1.3188402051478993 -1.4301318431871064 3.6519871880273627
H -2.381351335347378 -1.0910964661019826 2.339825964768838
H -1.2480620727469673 1.0954100474808903 -1.7429126472788097
H -1.83997619179541 3.4743646799128745 -1.9048651405966395
H -1.8485489409449762 4.9045881050790365 0.12224104353079053
H -1.2434180296920367 3.9330186892149537 2.32066031160911
H -0.6393281737768858 1.5780825384363222 2.5222037100079056
H -3.3228096767973785 0.12338685519766117 0.20690962973765728
H -5.080838296174155 -1.3040259812338546 -0.7026259224408297
H -4.553063134024016 -3.5745462477940197 -1.549246916186274
H -2.2203555941920206 -4.408210595144334 -1.4622570030577424
H -0.43456153482597343 -3.023037611077233 -0.5612367428778957
H 5.2438707627453125 -0.9607421168574221 0.36565225846747496
H 4.7951806058566335 0.7524472515558832 0.30066649862875994
H 4.197392148047882 -0.29566431091848344 1.6053581393896412
H 3.956856997478037 0.2700970319987237 -2.07349844989335
H 4.374730248529529 -1.434464099520729 -1.850823918827107
H 2.733488699777173 -1.0018811286832299 -2.2820898158869145
