43
ZINC000000000007
C -6.189026801146262 2.0592806791532188 2.181500124821932
C -5.219839337233693 2.2529846378613803 1.2771722390977172
C -4.973761787942709 1.3612978946834418 0.09308692539972713
C -3.5812294252967924 0.7754293904902051 0.0965124761665065
C -2.572819077772845 1.32724167348254 -0.6996197326966143
C -1.2830279939514333 0.7891444862572262 -0.6867389886841829
C -0.9793231371384182 -0.3063668686146732 0.12865528676476304
O 0.2563532243833959 -0.9017022606778845 0.2034403217795962
C 1.315814721545792 -0.32632535847004746 -0.5465292949883783
C 2.640525309798711 -1.080130926435458 -0.3448076585495003
O 2.6974619365747263 -2.142019372318924 0.2785990604647629
N 3.78657126851062 -0.5103907531481912 -0.9136002495852276
C 5.061973635440535 -1.204084573536902 -0.7288248476553916
C 5.309255256753994 -2.2299358874656225 -1.8239414995383922
C 3.8045902280125747 0.7224829678854298 -1.7021500384049646
C 4.148088247471205 1.9349382316937125 -0.8506803956067149
C -1.9857572284795977 -0.8655942210583442 0.9409183326115445
O -1.609086966158142 -1.9344203435791598 1.7155469453701708
C -2.5871121801205854 -2.5134148251215116 2.565721637000494
C -3.275381784578414 -0.3200306985068547 0.9194987693456231
H -6.875096715636589 1.220740297907107 2.114793386776755
H -6.312646365207893 2.7429152370637455 3.0160940753497583
H -4.5590075297072605 3.110331157341231 1.389734372123164
H -5.703938431448367 0.5428837037361359 0.05170732752875844
H -5.128509452888909 1.9446999459320267 -0.8231525411191661
H -2.784265410473002 2.181894119306486 -1.3387367691219472
H -0.54035781594478 1.2503740673572228 -1.3278625720300865
H 1.0757474931807858 -0.3819937172389714 -1.6145397365711067
H 1.4644690637212199 0.7091157428554099 -0.2229590474147304
H 5.870740546322853 -0.4655727122550466 -0.7107689661305953
H 5.067449793286652 -1.707223759895018 0.24460869586522097
H 4.520369411196291 -2.9889454711557373 -1.8398769113368638
H 5.3349270731675045 -1.7556080081821848 -2.810256555423684
H 6.266580320220022 -2.7348298830965203 -1.662481897695609
H 2.833295089738674 0.8788515896116925 -2.1785849882799653
H 4.535982824053729 0.6087983145292583 -2.5101002098151
H 3.430433313074895 2.0645472874085447 -0.03467386972054162
H 4.139300182004029 2.8424888217409463 -1.4621014667755623
H 5.1425635931521505 1.8360410896927852 -0.4040084778290207
H -3.4166685445168996 -2.931671742205031 1.9862505191628845
H -2.1134435839435395 -3.337199974845596 3.108406276246841
H -2.9453109693287205 -1.7908817319396302 3.306414538385476
H -4.066881992696055 -0.7281382462674144 1.5401406923440466
