37
ZINC000000000202
C -1.0559051085102213 2.7286873244134022 -1.4115204095456617
C -1.1687283192623192 1.4609230907006145 -0.5747437977608458
N -2.2877305325418282 0.8257405707657279 -0.7278080474019832
C -2.626242648305727 -0.2949416915795904 0.041374093726836515
C -3.9246253041047345 -0.36120387700263823 0.5570726642795435
C -4.351574595279439 -1.4671972859000832 1.294091411040549
C -3.4808158479541076 -2.5304556223256944 1.5133718373373783
C -2.187177356440785 -2.486197609933517 0.995288963837505
C -1.7575162300994187 -1.3720616456296546 0.2569444474257297
C -0.3617590033187026 -1.3038156900459514 -0.2951820400369959
C 0.4517471287785521 -0.2010667173500186 0.40683243544404935
C 1.893723688204684 -0.25039640206650554 -0.09939086616723303
C 2.2144943532914336 0.10389635004596359 -1.4208368852770492
C 3.5339924561040377 0.05012382374524861 -1.8716549320409797
C 4.549114343121983 -0.3591604384580774 -1.0098399532093074
C 4.246821043578022 -0.7148446358800584 0.3030980735408077
C 2.9275884117478275 -0.6618919790826924 0.7570405959041158
N -0.1015830430749822 1.1615599133654324 0.26131717856784403
C 0.6471132059412621 2.2282140772210512 0.9195027360879057
H -1.734768761611037 2.682838314071692 -2.2685089910828076
H -1.3233459587908876 3.5930211912316317 -0.7973146620831616
H -0.03494620192227127 2.8473323304665183 -1.7845783729904066
H -4.608748988599795 0.4632625822395641 0.3740868458547238
H -5.363729303626413 -1.497586171173299 1.6874169408135904
H -3.810919593676216 -3.3954387647634987 2.082438167201956
H -1.5178763639013377 -3.3253422442575866 1.168155100103013
H 0.13720343796142517 -2.273102046994841 -0.16071792519811265
H -0.41502075404837746 -1.1491701485729997 -1.3812276400504335
H 0.45407058154750773 -0.42537654220921234 1.483074669495412
H 1.432854794068438 0.42935897699864056 -2.104823923581003
H 3.768812889801217 0.32780323668601136 -2.8960392860443958
H 5.5765010058095035 -0.401525068781571 -1.3621553342929678
H 5.03996914635828 -1.0349892388330941 0.9740851603933784
H 2.713382735158995 -0.9446971454608027 1.7854875791370082
H 1.1569044902445726 1.8631187468479555 1.8177696808314743
H -0.026447516246522838 3.0289412435730587 1.2435790029734093
H 1.3951677195974028 2.655639193929764 0.2443154827676326
