28
ZINC000000000054
C -3.4535663546602446 0.12566383518931137 1.4216430777438558
C -2.8026080429373232 0.4942028461998199 0.08568546502934343
C -3.4284283423966366 -0.2377908073780839 -1.0881105067176648
O -3.5529384278537606 0.20491814625030197 -2.2204023979616445
O -3.8216129265252263 -1.4983303291998769 -0.8164765598287992
C -1.2932088145497465 0.32825566018074387 0.10696386398030956
C -0.464644342637809 1.4167762390451837 -0.20058839823423164
C 0.9272136043452072 1.279727346664268 -0.19417579502503934
C 1.5201273806386775 0.05196341151040868 0.12006271252453651
C 2.9734508824024934 -0.08063942806592773 0.11698886817630258
C 3.886112252492324 0.43426552237393057 -0.860559352349202
C 5.199638616280425 0.1431330089289044 -0.5641720591752298
S 5.347154151401848 -0.7387556861661363 0.8919447699815752
C 3.65151992391166 -0.7339627423414248 1.1291792738288122
C 0.696694841421373 -1.0399435614913304 0.41768638369944966
C -0.6952201285513783 -0.9037402911823028 0.40965698701960873
H -3.047156731248017 0.7381208653833694 2.2342102025686383
H -3.296258580924962 -0.9248561756971078 1.6889318083119453
H -4.535874388696007 0.29179137207789047 1.380755811178094
H -3.041647283351555 1.5547628021191875 -0.0762769589824961
H -4.149993780562913 -1.829093277028448 -1.6791918949652382
H -0.8939643506774299 2.385017597095849 -0.45101310359653013
H 1.5416123098575654 2.146197930021607 -0.4278933929273069
H 3.5913371865171886 0.9830097179372909 -1.7469437228253955
H 6.080798425745374 0.4060300247704545 -1.133041631782633
H 3.2410886801409258 -1.207890309295182 2.0105496578500004
H 1.1270304615348161 -2.0130883733408913 0.6427024115590727
H -1.3066562211167347 -1.775745344561848 0.6344658117862483
