41
ZINC000000000023
C -4.6724603947817105 2.2207946473731863 -2.168716167562279
C -3.702300349816882 1.5470325683641015 -1.5368045195316484
C -3.766123934893417 1.1103515937254895 -0.09915767266161338
C -3.644713196771059 -0.39144352613293754 0.050639146781099764
C -4.808829959082994 -1.1770174787488317 -0.021433842887743873
C -4.74016790298992 -2.563470918809059 0.0953619390364232
C -3.507454628809886 -3.1808639629098705 0.27874409760166957
C -2.3403504138591007 -2.4149429007101264 0.34126494683501823
C -2.3973420142740256 -1.0218467575136163 0.22421807221801135
O -1.3080329580782837 -0.1917632864381308 0.2639122035531
C -0.0159945292960403 -0.7938185919844252 0.40801739307978774
C 1.0188855800319592 0.33758722960056686 0.4047920386809227
O 0.9675950388782775 1.0200267421858535 -0.8619667204691311
C 2.4399531545110325 -0.21301996683148555 0.6180339230360756
N 3.4014381710236727 0.8951075433543845 0.680716074809016
C 4.797734619980011 0.4551661109099299 0.720094788133323
C 5.305719966426124 0.0029134060025466954 -0.6504710147668316
C 5.64053824892299 1.6298402814693522 1.2205753109201163
H -5.594234763281141 2.4997712418338165 -1.6682072292773913
H -4.5605011369209745 2.5059382758419355 -3.2103574359926172
H -2.796152588149066 1.2916415710992317 -2.0823406666255346
H -4.703249579037634 1.4408219073874384 0.36811253225942275
H -2.973456932605072 1.616125545455227 0.4650531987330772
H -5.776825729456962 -0.7042580688290452 -0.1743434155967714
H -5.647007046180967 -3.159826216777607 0.03945648358448211
H -3.4515532998171676 -4.262749587407571 0.36880136487258064
H -1.402241661945124 -2.9414359969869666 0.47949031534979847
H 0.03926112618571643 -1.3427860984102735 1.355046012334119
H 0.16847718186825927 -1.4624154204483464 -0.44155020023241787
H 0.7681575705953319 1.0753981968188435 1.1766629181632553
H 0.031464317081163026 1.2680902777821372 -0.9847145080679635
H 2.68428632070528 -0.8801208994367051 -0.2156810353652176
H 2.4808231911173917 -0.787896635745915 1.5498731989321506
H 3.2369838927592554 1.498349954367901 -0.1308178967605481
H 4.911815618896975 -0.365661874160492 1.438821521894938
H 5.189664513348086 0.792074367135054 -1.401883572663504
H 6.369431574234643 -0.25472548483538354 -0.5999520707404383
H 4.774005838127684 -0.8845690018422947 -1.006785195334654
H 6.694327681345694 1.3419910180025032 1.3031478902560176
H 5.579249474243569 2.489351536232069 0.543150403219133
H 5.309179939763433 1.9562586600160687 2.212901214124229
