43
ZINC000000000149
C 7.511961947826957 -1.8213385569153708 1.0398515162459825
O 6.399029098377993 -0.9400239581390475 1.1391041707517624
C 6.259634612511704 -0.13898879596749303 -0.033184006528243375
C 5.078080077647228 0.8066214043074796 0.13659302743883242
C 3.769333575894993 0.08550947424972566 0.3623223114007411
N 2.8323638021963666 0.877863700087523 -0.379246464079784
C 1.426904938416483 0.6971276496995221 -0.2952049553523621
C 0.8820809542829547 -0.294015410769064 0.5337833319704265
C -0.5031499501130339 -0.4777369122639928 0.6292625711595862
C -1.3809773352532622 0.3215110421921756 -0.09917510025607117
O -2.703963573087374 0.03706458303889449 0.0859846782642544
C -3.6437592182671206 0.7990487244679552 -0.6712498306424841
C -5.037021073814628 0.29408053864325956 -0.37003566433444357
C -6.069334275435666 1.1904125718265668 -0.058477523448815884
C -7.361185168771896 0.7257930854045215 0.1967651497463488
C -7.638088780054779 -0.6401897913815887 0.13728254292266645
C -6.6222583312993235 -1.5466241888392158 -0.18013806132161145
C -6.904929166856591 -2.950675813946952 -0.24393912374993823
N -7.137021828848308 -4.086768935828763 -0.29772051937305377
C -5.328469223691122 -1.0784950472735013 -0.43729128800424166
C -0.8573545436003661 1.3117654692446514 -0.9232293206267427
C 0.5314135701133574 1.4955706219465712 -1.0169557577000237
C 3.5238571914533976 1.7003350180905683 -1.258029092251326
O 3.0852114424601855 2.438381731142494 -2.125284221228537
O 4.875589363865352 1.5710568705564163 -1.0540532773342342
H 8.440807100503548 -1.2541929432396737 0.9263408531728753
H 7.381998455677996 -2.5075459418264057 0.1974683529805983
H 7.569836727938191 -2.4067229019953156 1.9613363435056617
H 6.1142372214328375 -0.7803021908544491 -0.9114726132214431
H 7.173489128497348 0.44356041730699886 -0.20137463553216023
H 5.273150996347952 1.5041685676331626 0.9608998606576123
H 3.523064569696364 0.044991497272491396 1.4280416858451435
H 3.773626310166862 -0.9270826260232413 -0.05747450801555581
H 1.510751619049381 -0.9555331649488635 1.1218706358170947
H -0.8974487923013253 -1.2554866388414634 1.27946855246434
H -3.565636923071802 1.857327868502862 -0.39369445786052015
H -3.463735746425101 0.6821129546855922 -1.7472895365932
H -5.874247283123222 2.260213084512822 -0.007522248017831296
H -8.152424648388736 1.4302921444088466 0.4431001787973663
H -8.64851587220929 -0.9907014988295496 0.339481272872777
H -4.535045557292471 -1.7836841712315086 -0.6852484411169949
H -1.490213773361144 1.9692951554360683 -1.5100659297614087
H 0.8783583609067017 2.292005314460611 -1.6692014739176944
