33
ZINC000000000070
C -4.3978823365505315 -1.6774428185552341 0.3422806137871678
C -4.078989170660508 -0.18290034469714625 0.25989840743994297
C -4.551777600943237 0.3925183642914676 -1.0629167628416165
O -4.732544939392723 -0.21271078247067804 -2.107172665263663
O -4.762579146117066 1.7246590046484316 -1.0056625534522372
C -2.602281083316205 0.09228650246500687 0.5024422542122058
C -2.2115899457576913 0.8642812444390711 1.615890991348242
C -0.8662858234448747 1.149171397163806 1.8881071085956593
C 0.05345335892635886 0.6240957129601079 0.9915625254596164
O 1.4103307026882397 0.7529958992347449 1.0270712899582373
C 1.8388613854939773 0.05462756606656598 -0.07545865730189667
C 3.2815476338064826 0.013590921452281307 -0.3065130124171758
C 4.191425627277816 0.6528893006548682 0.5507294559822037
C 5.567678623897679 0.5963240538969476 0.3040479303290389
C 6.045467787626197 -0.10078039233023339 -0.803100426287931
Cl 7.737164853512366 -0.16990321030312736 -1.1057382024462856
C 5.160199612861511 -0.7416488989192827 -1.6656235138255495
C 3.785097390115031 -0.6836401730129207 -1.4168961552580055
N 0.8697737415765738 -0.4936928352832975 -0.7880840146473166
C -0.27157814854209705 -0.13697764863926878 -0.11684345327968337
C -1.6202913457065158 -0.414503318968347 -0.3779974786549216
H -5.472760619276628 -1.8493939110445932 0.21640228074762197
H -3.884666104011895 -2.252334877693216 -0.43668581456976674
H -4.10014771087786 -2.0889131318329786 1.3130178716698953
H -4.678010886558661 0.30412614870302074 1.0415358116901796
H -5.023391526314229 1.9634273326407075 -1.9200376631100116
H -2.96755031368735 1.2611657406605667 2.2934494565149253
H -0.5600321302934838 1.7418095062913854 2.7407600891381283
H 3.838040833377398 1.202635547878433 1.4210523174261227
H 6.256801305585925 1.0974515167873864 0.9788395370361349
H 5.528258706980356 -1.2867714874638017 -2.5307777347082507
H 3.100817257710102 -1.1885800374311777 -2.098101197958667
H -1.8825599899760856 -1.007861891593941 -1.2487035976579752
