40
ZINC000000000171
C -1.4904593978187302 2.2144788030190035 -1.4655329337479481
C -2.635469124232145 1.2397668640332327 -1.3370390548690292
C -3.914158347563849 1.5414904837293384 -1.8539712045743442
Cl -4.271852152841055 3.0437117628041923 -2.637297776949175
C -4.965810649132473 0.6278036572307295 -1.755934208240992
C -4.760998940974146 -0.6024852574734494 -1.1485840523877184
C -3.5087170598970285 -0.9113183794747417 -0.6200150991684447
C -2.4405239236373517 0.001020906446570009 -0.6659380673126934
N -1.1636144798475951 -0.34685679545982734 -0.15462164325304276
C -0.8071770741242296 -1.2552519460587763 0.8740762678266567
N -1.779148543494178 -1.8291331234658275 1.626049238403901
C -1.4361509169771653 -2.7390613803905612 2.5652113550673667
C -0.13759221776319638 -3.135951601921043 2.809655572289528
C 0.8678948964952711 -2.5551529764203837 2.05028087142543
C 0.5397470376965986 -1.5957957648516927 1.0804984761213183
C 1.6610038843945847 -1.0091671757555696 0.31705158143297857
O 2.6997505473091317 -1.606677289519694 0.07691738940242668
O 1.424929128388389 0.2991274704477893 0.03755877389592433
C 2.441329185972059 0.9642379476310213 -0.7331139298171355
C 3.4405195453456456 1.729403953466424 0.14300486510623842
O 4.347393351240589 2.429644969958675 -0.7196706133612566
C 4.259681289450249 0.8479635712267221 1.0921827423956987
O 5.006557402021473 -0.1126909734756733 0.34506935492114993
H -1.211970152671237 2.5956350386597093 -0.4774779242044265
H -0.6267103976522389 1.7204322158811394 -1.9232794838148226
H -1.711766278771043 3.0768872221501877 -2.097554859151317
H -5.945582385649094 0.86771701622876 -2.161094942144069
H -5.569852489636888 -1.3252377056843183 -1.0848275917673633
H -3.3767015512072542 -1.8925527719776887 -0.1713737364045349
H -0.5247153508796722 0.4422975723190685 -0.12440893088136723
H -2.267054506738176 -3.15577831525392 3.1282650839553123
H 0.08518705160908423 -3.8775624256837062 3.5688370006189527
H 1.90331854727357 -2.846736635770852 2.2131858079612443
H 2.947654253912468 0.27576753068876336 -1.4218987219081238
H 1.9238042098333183 1.6794018029230833 -1.3837292858109065
H 2.901836077055775 2.47484461068973 0.7382242918917421
H 5.065727741664646 1.7953311846534812 -0.9225099385730285
H 4.989450384647509 1.4626693785114635 1.6292221639094175
H 3.637893274242705 0.33540105891672956 1.8319655066727805
H 4.402348132954563 -0.8676245029770595 0.16801346992733585
