42
ZINC000000000179
C 4.23077554256115 0.08195190400800632 0.560752552873301
N 3.630594944129521 -0.8869413250994969 -0.35853039626720096
C 4.433772825876443 -0.9693214690004393 -1.5816051756146783
C 2.2356048040079064 -0.5445570140506498 -0.6943814783800281
C 1.2775307659647563 -0.6611520820962913 0.5050210446995947
C -0.21371189800595403 -0.4999775848726928 0.09239354465691896
C -0.5910220844089175 0.8623801273132032 -0.49434067923632974
C 0.10153886578742993 2.04408545508172 -0.18324672937160716
C -0.27743734473796994 3.2662904705818887 -0.7439624314585016
C -1.366524297454495 3.3247493041736766 -1.6060424479793904
Cl -1.833325799126247 4.830872842618555 -2.294631957373424
C -2.093683418095622 2.1743841154010948 -1.8995359877195273
C -1.7213137300736052 0.9431491150414241 -1.3384325841647127
C -2.56645311632078 -0.28391423644711816 -1.579793563297499
C -3.3175938592169705 -0.7249893857561578 -0.31845300646819696
C -2.5745318361842298 -1.0293944400128963 0.9686150441080237
C -3.371302937323088 -1.438853739603183 2.0553946521556448
C -2.8074973722867447 -1.695948030446155 3.2975348767629202
C -1.4473557509752328 -1.5309268114797931 3.430239498168192
N -0.6428465874398219 -1.143730860193417 2.4206753862970136
C -1.1927116815774617 -0.9015785460016714 1.1971908972559175
H 4.196964972303871 1.1032076983022998 0.16443121355024118
H 3.7318087306472547 0.06858907714664607 1.5344594821132995
H 5.278431078696099 -0.17331102604111964 0.7582453443440855
H 5.461116224520722 -1.271496197418266 -1.3489734232674726
H 4.467405032467715 -0.014610881106528608 -2.1190813433158042
H 4.03151302819376 -1.7325884992358556 -2.2571230033969356
H 2.1911894000412473 0.45760664290459657 -1.135858679012137
H 1.883785014628364 -1.2441657632331256 -1.4639878568753977
H 1.4173525203877688 -1.6584709010890761 0.945570735962907
H 1.5357908690734088 0.05908034961861503 1.289183995793172
H -0.33395358778273027 -1.2555232308652498 -0.6947406737030487
H 0.9430605575207979 2.037204153364206 0.5050562506008439
H 0.2779800124800929 4.1668307560351945 -0.4960955665944353
H -2.9613537128463707 2.2405399289728747 -2.5513980467357786
H -3.3051760762963838 -0.07400597402434325 -2.364493953617393
H -1.953334400652907 -1.0971833019123722 -1.9836569594911506
H -4.050095395032918 0.06005803970434383 -0.08128141348029803
H -3.893880326972263 -1.6213885977903517 -0.5848658282041268
H -4.447329941584061 -1.5482598483531755 1.934026702808298
H -3.4156402624520017 -2.0080364943512596 4.138164067969833
H -0.9481397724415682 -1.7106537397876238 4.377557894904933
