46
ZINC000000000035
C 5.357143971701976 -0.9788103975394474 0.0020001805959851647
C 3.8267266731817258 -0.9727904902773348 0.06692708124934742
C 3.2565102066353555 -0.8398300753005576 -1.345276845167712
C 3.355845707987487 0.14273109685455465 1.0229275178608184
C 1.851985119494378 0.15119699415779825 1.2932692412814617
O 1.1675960558099907 0.7153092924601626 0.1788378021965049
C -0.2650714848468058 0.6960616855176464 0.33095493178387486
C -0.8256574295113588 -0.6159671284416376 -0.2885834923467583
N -2.188033177160058 -0.9779335159778322 0.141714127133017
C -2.7232630594749456 -2.0979027939584416 -0.6350126580385554
C -3.933996259458556 -2.5248797139293204 0.17839250763055622
C -3.607902662468832 -2.123028114227991 1.6122828938701348
C -2.2602656714811276 -1.4186262404428265 1.535450415339688
C -0.8532588451168747 1.9340968949827158 -0.33137058827527693
C -0.18761474983015877 2.6055339431322992 -1.3691386938012335
C -0.7526666783827236 3.7329387588636496 -1.9691559915561205
C -1.9938837918982502 4.201611824426525 -1.5449101771627876
C -2.67219687429398 3.54220017404847 -0.5225905179985969
C -2.106905707717622 2.415859411994976 0.07877427565095584
H 5.717332406404955 -1.7949552143111627 -0.633390641464328
H 5.789261720314121 -1.1194760749878105 0.998443758131939
H 5.7410834646245155 -0.03712108377458254 -0.40506102518338866
H 3.506956348416806 -1.9404038172543978 0.4742502831416244
H 2.1778976418053637 -1.019068353703313 -1.3573938043828264
H 3.446553372949331 0.1559112652094281 -1.7595445615720686
H 3.7080205893525995 -1.576933258934658 -2.0183689660582327
H 3.8678338103610956 0.00955341751057723 1.9843076829831372
H 3.661701850911815 1.1177101146576798 0.6228960853815545
H 1.6554826485257423 0.7760427510789791 2.1722989245926376
H 1.4915979977094576 -0.862664992891598 1.4985016555451491
H -0.4939102158260687 0.7533653075792245 1.402783734471537
H -0.8127440536423725 -0.5058833918591675 -1.382079438377663
H -0.139101092001458 -1.4462336049202704 -0.07638351175469246
H -2.0061323027890023 -2.9263827204070365 -0.6990515505839257
H -3.005583559204938 -1.7996888531731454 -1.6495920749107797
H -4.833076317770213 -1.995347138011423 -0.15868036288500612
H -4.123872681315145 -3.599123483708114 0.08898229237264638
H -4.382118606318007 -1.4476677296290457 1.9945163329266389
H -3.564330845285259 -2.9933737569656387 2.2750641374139535
H -1.4590398369528763 -2.12797949956791 1.7788509276767568
H -2.2123310454048757 -0.5842657499852018 2.2415814400418075
H 0.7814592116269881 2.2522443852146314 -1.7157019142582413
H -0.2222481247147569 4.242765640516853 -2.768751298562822
H -2.433943040357962 5.077301770138591 -2.0137311324133353
H -3.6446052115785865 3.9000601191289945 -0.19558127821080037
H -2.6572354730111103 1.9038423467064651 0.8653422956933238
